*Heading
 Square Domain Dirichlet and Neumann BCs - Triangular Element High Mesh Density
** Job name: sq_tri_high_dirneubc Model name: Model-1
** Generated by: Abaqus/CAE 6.13-4
*Preprint, echo=NO, model=NO, history=NO, contact=NO
**
** PARTS
**
*Part, name=Part-1
*Node
      1,          0.5,          0.5
      2,   0.49000001,          0.5
      3,  0.479999989,          0.5
      4,  0.469999999,          0.5
      5,  0.460000008,          0.5
      6,  0.449999988,          0.5
      7,  0.439999998,          0.5
      8,  0.430000007,          0.5
      9,  0.419999987,          0.5
     10,  0.409999996,          0.5
     11,  0.400000006,          0.5
     12,  0.389999986,          0.5
     13,  0.379999995,          0.5
     14,  0.370000005,          0.5
     15,  0.360000014,          0.5
     16,  0.349999994,          0.5
     17,  0.340000004,          0.5
     18,  0.330000013,          0.5
     19,  0.319999993,          0.5
     20,  0.310000002,          0.5
** ... 40381 like lines cut
*Element, type=DC2D6
    1,     1,     2,   103, 10202, 10203, 10204
    2,   103,   102,     1, 10205, 10206, 10204
    3,     2,     3,   104, 10207, 10208, 10209
    4,   104,   103,     2, 10210, 10203, 10209
    5,     3,     4,   105, 10211, 10212, 10213
    6,   105,   104,     3, 10214, 10208, 10213
    7,     4,     5,   106, 10215, 10216, 10217
    8,   106,   105,     4, 10218, 10212, 10217
    9,     5,     6,   107, 10219, 10220, 10221
   10,   107,   106,     5, 10222, 10216, 10221
   11,     6,     7,   108, 10223, 10224, 10225
   12,   108,   107,     6, 10226, 10220, 10225
   13,     7,     8,   109, 10227, 10228, 10229
   14,   109,   108,     7, 10230, 10224, 10229
   15,     8,     9,   110, 10231, 10232, 10233
   16,   110,   109,     8, 10234, 10228, 10233
   17,     9,    10,   111, 10235, 10236, 10237
   18,   111,   110,     9, 10238, 10232, 10237
   19,    10,    11,   112, 10239, 10240, 10241
   20,   112,   111,    10, 10242, 10236, 10241
** ... 19980 like lines cut
*Nset, nset=Set-1, generate
     1,  40401,      1
*Elset, elset=Set-1, generate
     1,  20000,      1
** Section: Section-1
*Solid Section, elset=Set-1, material=Material-1
,
*End Part
**  
**
** ASSEMBLY
**
*Assembly, name=Assembly
**  
*Instance, name=Part-1-1, part=Part-1
*End Instance
**  
*Nset, nset=Set-1, instance=Part-1-1
   101,   202,   303,   404,   505,   606,   707,   808,   909,  1010,  1111,  1212,  1313,  1414,  1515,  1616
  1717,  1818,  1919,  2020,  2121,  2222,  2323,  2424,  2525,  2626,  2727,  2828,  2929,  3030,  3131,  3232
  3333,  3434,  3535,  3636,  3737,  3838,  3939,  4040,  4141,  4242,  4343,  4444,  4545,  4646,  4747,  4848
  4949,  5050,  5151,  5252,  5353,  5454,  5555,  5656,  5757,  5858,  5959,  6060,  6161,  6262,  6363,  6464
  6565,  6666,  6767,  6868,  6969,  7070,  7171,  7272,  7373,  7474,  7575,  7676,  7777,  7878,  7979,  8080
  8181,  8282,  8383,  8484,  8585,  8686,  8787,  8888,  8989,  9090,  9191,  9292,  9393,  9494,  9595,  9696
  9797,  9898,  9999, 10100, 10201, 10600, 10901, 11202, 11503, 11804, 12105, 12406, 12707, 13008, 13309, 13610
 13911, 14212, 14513, 14814, 15115, 15416, 15717, 16018, 16319, 16620, 16921, 17222, 17523, 17824, 18125, 18426
 18727, 19028, 19329, 19630, 19931, 20232, 20533, 20834, 21135, 21436, 21737, 22038, 22339, 22640, 22941, 23242
 23543, 23844, 24145, 24446, 24747, 25048, 25349, 25650, 25951, 26252, 26553, 26854, 27155, 27456, 27757, 28058
 28359, 28660, 28961, 29262, 29563, 29864, 30165, 30466, 30767, 31068, 31369, 31670, 31971, 32272, 32573, 32874
 33175, 33476, 33777, 34078, 34379, 34680, 34981, 35282, 35583, 35884, 36185, 36486, 36787, 37088, 37389, 37690
 37991, 38292, 38593, 38894, 39195, 39496, 39797, 40098, 40399
*Elset, elset=Set-1, instance=Part-1-1, generate
   199,  19999,    200
*Elset, elset=_Surf-1_S2, internal, instance=Part-1-1, generate
     2,  19802,    200
*Surface, type=ELEMENT, name=Surf-1
_Surf-1_S2, S2
*End Assembly
** 
** MATERIALS
** 
*Material, name=Material-1
*Conductivity
1.,
** ----------------------------------------------------------------
** 
** STEP: Analysis
** 
*Step, name=Analysis, nlgeom=NO
*Heat Transfer, steady state, deltmx=0.
1., 1., 1e-05, 1., 
** 
** BOUNDARY CONDITIONS
** 
** Name: BC-1 Type: Temperature
*Boundary
Set-1, 11, 11
** 
** LOADS
** 
** Name: Load-1   Type: Surface heat flux
*Dsflux
Surf-1, S, -2.
** 
** OUTPUT REQUESTS
** 
*Restart, write, frequency=0
** 
** FIELD OUTPUT: F-Output-1
** 
*Output, field, variable=PRESELECT
*Output, history, frequency=0
*End Step
