*Heading
 Square Dirichlet only - triangular element moderate density
** Job name: sq_tri_mod_dirbc Model name: Model-1
** Generated by: Abaqus/CAE 6.13-4
*Preprint, echo=NO, model=NO, history=NO, contact=NO
**
** PARTS
**
*Part, name=sq_tri_mod_dirbc
*Node
      1,          0.5,          0.5
      2,  0.400000006,          0.5
      3,  0.300000012,          0.5
      4,  0.200000003,          0.5
      5,  0.100000001,          0.5
      6,           0.,          0.5
      7, -0.100000001,          0.5
      8, -0.200000003,          0.5
      9, -0.300000012,          0.5
     10, -0.400000006,          0.5
     11,         -0.5,          0.5
     12,          0.5,  0.400000006
     13,  0.400000006,  0.400000006
     14,  0.300000012,  0.400000006
     15,  0.200000003,  0.400000006
     16,  0.100000001,  0.400000006
     17,           0.,  0.400000006
     18, -0.100000001,  0.400000006
     19, -0.200000003,  0.400000006
     20, -0.300000012,  0.400000006
** ... 421 like lines cut
*Element, type=DC2D6
  1,   1,   2,  12, 122, 123, 124
  2,   2,  13,  12, 125, 126, 123
  3,   2,   3,  13, 127, 128, 125
  4,   3,  14,  13, 129, 130, 128
  5,   3,   4,  14, 131, 132, 129
  6,   4,  15,  14, 133, 134, 132
  7,   4,   5,  15, 135, 136, 133
  8,   5,  16,  15, 137, 138, 136
  9,   5,   6,  16, 139, 140, 137
 10,   6,  17,  16, 141, 142, 140
 11,   6,   7,  17, 143, 144, 141
 12,   7,  18,  17, 145, 146, 144
 13,   7,   8,  18, 147, 148, 145
 14,   8,  19,  18, 149, 150, 148
 15,   8,   9,  19, 151, 152, 149
 16,   9,  20,  19, 153, 154, 152
 17,   9,  10,  20, 155, 156, 153
 18,  10,  21,  20, 157, 158, 156
 19,  10,  11,  21, 159, 160, 157
 20,  11,  22,  21, 161, 162, 160
** ... 180 like lines cut
*Nset, nset=Set-1, generate
   1,  441,    1
*Elset, elset=Set-1, generate
   1,  200,    1
** Section: Section-1
*Solid Section, elset=Set-1, material=Material-1
,
*End Part
**  
**
** ASSEMBLY
**
*Assembly, name=Assembly
**  
*Instance, name=sq_tri_mod_dirbc-1, part=sq_tri_mod_dirbc
*End Instance
**  
*Nset, nset=Set-1, instance=sq_tri_mod_dirbc-1
  11,  22,  33,  44,  55,  66,  77,  88,  99, 110, 121, 161, 192, 223, 254, 285
 316, 347, 378, 409, 440
*Elset, elset=Set-1, instance=sq_tri_mod_dirbc-1, generate
  20,  200,   20
*Nset, nset=Set-2, instance=sq_tri_mod_dirbc-1
   1,  12,  23,  34,  45,  56,  67,  78,  89, 100, 111, 124, 164, 195, 226, 257
 288, 319, 350, 381, 412
*Elset, elset=Set-2, instance=sq_tri_mod_dirbc-1, generate
   1,  181,   20
*End Assembly
** 
** MATERIALS
** 
*Material, name=Material-1
*Conductivity
1.,
** ----------------------------------------------------------------
** 
** STEP: Analysis
** 
*Step, name=Analysis, nlgeom=NO
*Heat Transfer, steady state, deltmx=0.
1., 1., 1e-05, 1., 
** 
** BOUNDARY CONDITIONS
** 
** Name: BC-1 Type: Temperature
*Boundary
Set-1, 11, 11
** Name: BC-2 Type: Temperature
*Boundary
Set-2, 11, 11, 1.
** 
** OUTPUT REQUESTS
** 
*Restart, write, frequency=0
** 
** FIELD OUTPUT: F-Output-1
** 
*Output, field, variable=PRESELECT
*Output, history, frequency=0
*End Step
