*Heading
 Square with Hole and Dirchlet and Neuman BCs - Quadrilateral Moderate Mesh Density
** Job name: sqhole_quad_mod_dirneubc Model name: Model-1
** Generated by: Abaqus/CAE 6.13-4
*Preprint, echo=NO, model=NO, history=NO, contact=NO
**
** PARTS
**
*Part, name="Plate with Hole"
*Node
      1,  0.230969876, 0.0956708565
      2,  0.176776692,  0.176776692
      3, 0.0956708565,  0.230969876
      4,           0.,         0.25
      5, -0.0956708565,  0.230969876
      6, -0.176776692,  0.176776692
      7, -0.230969876, 0.0956708565
      8,        -0.25,           0.
      9, -0.230969876, -0.0956708565
     10, -0.176776692, -0.176776692
     11, -0.0956708565, -0.230969876
     12,           0.,        -0.25
     13, 0.0956708565, -0.230969876
     14,  0.176776692, -0.176776692
     15,  0.230969876, -0.0956708565
     16,         0.25,           0.
     17,          0.5,          0.5
     18,         -0.5,          0.5
     19,         -0.5,         -0.5
     20,          0.5,         -0.5
** ... 306 like lines cut
*Element, type=DC2D8
 1, 109, 115,  95,  96, 119, 120, 121, 122
 2, 110,  57,  46,  47, 123, 124, 125, 126
 3,  45,  46,  57, 107, 127, 124, 128, 129
 4,  59,  92, 112,  91, 130, 131, 132, 133
 5,  90,  61,  40,  41, 134, 135, 136, 137
 6, 103,  88,  89, 102, 138, 139, 140, 141
 7,  38,  62, 102,  37, 142, 143, 144, 145
 8,  40,  61,  62,  39, 135, 146, 147, 148
 9,  36,  37, 102,  89, 149, 144, 140, 150
10,  64,  85,  84,  83, 151, 152, 153, 154
11,  32,  64,  65,  31, 155, 156, 157, 158
12,  29,  66, 101,  28, 159, 160, 161, 162
13,  31,  65,  66,  30, 157, 163, 164, 165
14,  27,  28, 101,  82, 166, 161, 167, 168
15,  68,  78,  77,  76, 169, 170, 171, 172
16,  23,  68,  69,  22, 173, 174, 175, 176
17,  98,  71, 117, 116, 177, 178, 179, 180
18, 100,  99,  69, 104, 181, 182, 183, 184
19,  72, 117, 118,  70, 185, 186, 187, 188
20,   1,  72,  70,   2, 189, 188, 190, 191
** ... 70 like lines cut
*Nset, nset=Set-1, generate
   1,  326,    1
*Elset, elset=Set-1, generate
  1,  90,   1
** Section: Section-1
*Solid Section, elset=Set-1, material=Material-1
,
*End Part
**  
**
** ASSEMBLY
**
*Assembly, name=Assembly
**  
*Instance, name="Plate with Hole-1", part="Plate with Hole"
*End Instance
**  
*Nset, nset=Set-1, instance="Plate with Hole-1"
   1,   2,   3,   4,   5,   6,   7,   8,   9,  10,  11,  12,  13,  14,  15,  16
 191, 196, 208, 218, 275, 282, 284, 291, 294, 303, 308, 310, 314, 319, 320, 321
*Elset, elset=Set-1, instance="Plate with Hole-1"
 20, 22, 26, 30, 50, 54, 55, 59, 61, 65, 68, 69, 73, 76, 77, 79
*Nset, nset=Set-2, instance="Plate with Hole-1"
  17,  18,  19,  20,  30,  31,  32,  33,  34,  35,  36,  37,  38,  48,  49,  50
  51,  52,  53,  54,  55,  56, 145, 149, 158, 165, 216, 221, 230, 247, 251, 257
 269, 286, 296, 300, 302, 313, 315, 322, 323, 326
*Elset, elset=Set-2, instance="Plate with Hole-1"
  7,  9, 11, 13, 29, 31, 35, 41, 42, 44, 49, 56, 62, 63, 64, 72
 74, 80, 81, 83
*Nset, nset=Set-3, instance="Plate with Hole-1", generate
   1,  326,    1
*Elset, elset=Set-3, instance="Plate with Hole-1", generate
  1,  90,   1
*Elset, elset=_Surf-1_S4, internal, instance="Plate with Hole-1"
 12, 16, 23, 47, 67
*Elset, elset=_Surf-1_S1, internal, instance="Plate with Hole-1"
 14, 29
*Elset, elset=_Surf-1_S2, internal, instance="Plate with Hole-1"
 49, 58, 70
*Surface, type=ELEMENT, name=Surf-1
_Surf-1_S4, S4
_Surf-1_S1, S1
_Surf-1_S2, S2
*Elset, elset=_Surf-2_S3, internal, instance="Plate with Hole-1"
 2, 5
*Elset, elset=_Surf-2_S1, internal, instance="Plate with Hole-1"
 3,
*Elset, elset=_Surf-2_S4, internal, instance="Plate with Hole-1"
  8, 36, 38, 42
*Elset, elset=_Surf-2_S2, internal, instance="Plate with Hole-1"
 35, 51, 52
*Surface, type=ELEMENT, name=Surf-2
_Surf-2_S3, S3
_Surf-2_S1, S1
_Surf-2_S4, S4
_Surf-2_S2, S2
*End Assembly
** 
** MATERIALS
** 
*Material, name=Material-1
*Conductivity
1.,
** ----------------------------------------------------------------
** 
** STEP: Analysis
** 
*Step, name=Analysis, nlgeom=NO
*Heat Transfer, steady state, deltmx=0.
1., 1., 1e-05, 1., 
** 
** BOUNDARY CONDITIONS
** 
** Name: External Type: Temperature Using Analytical Field: TempBC
*Boundary
"Plate with Hole-1".17, 11, 11, 0.142052
"Plate with Hole-1".18, 11, 11, 0.142052
"Plate with Hole-1".19, 11, 11, 0.142052
"Plate with Hole-1".20, 11, 11, 0.142052
"Plate with Hole-1".30, 11, 11, 0.0724024
"Plate with Hole-1".31, 11, 11, 0.0206967
"Plate with Hole-1".32, 11, 11, -0.0144184
"Plate with Hole-1".33, 11, 11, -0.0345371
"Plate with Hole-1".34, 11, 11, -0.0410534
"Plate with Hole-1".35, 11, 11, -0.0345371
"Plate with Hole-1".36, 11, 11, -0.0144184
"Plate with Hole-1".37, 11, 11, 0.0206967
"Plate with Hole-1".38, 11, 11, 0.0724024
"Plate with Hole-1".48, 11, 11, 0.0724024
"Plate with Hole-1".49, 11, 11, 0.0206967
"Plate with Hole-1".50, 11, 11, -0.0144184
"Plate with Hole-1".51, 11, 11, -0.0345371
"Plate with Hole-1".52, 11, 11, -0.0410534
"Plate with Hole-1".53, 11, 11, -0.0345371
"Plate with Hole-1".54, 11, 11, -0.0144184
** ... 22 like lines cut
** Name: Internal Type: Temperature
*Boundary
Set-1, 11, 11
** 
** LOADS
** 
** Name: Bottom Flux   Type: Surface heat flux Using Field: Flux
*Dflux
"Plate with Hole-1".2, S3, 0.590384
"Plate with Hole-1".3, S1, 0.552786
"Plate with Hole-1".5, S3, 0.552786
"Plate with Hole-1".8, S4, 0.590384
"Plate with Hole-1".35, S2, 0.628353
"Plate with Hole-1".36, S4, 0.521087
"Plate with Hole-1".38, S4, 0.502481
"Plate with Hole-1".42, S4, 0.628353
"Plate with Hole-1".51, S2, 0.521087
"Plate with Hole-1".52, S2, 0.502481
** Name: Heat Source   Type: Body heat flux Using Field: HeatSource
*Dflux
"Plate with Hole-1".1, BF, -2.79998
"Plate with Hole-1".2, BF, -3.11916
"Plate with Hole-1".3, BF, -3.02482
"Plate with Hole-1".4, BF, -2.63103
"Plate with Hole-1".5, BF, -3.0301
"Plate with Hole-1".6, BF, -2.8318
"Plate with Hole-1".7, BF, -3.12206
"Plate with Hole-1".8, BF, -3.12256
"Plate with Hole-1".9, BF, -3.02837
"Plate with Hole-1".10, BF, -2.70395
"Plate with Hole-1".11, BF, -3.02947
"Plate with Hole-1".12, BF, -3.12262
"Plate with Hole-1".13, BF, -3.12259
"Plate with Hole-1".14, BF, -3.02956
"Plate with Hole-1".15, BF, -2.70309
"Plate with Hole-1".16, BF, -3.02747
"Plate with Hole-1".17, BF, -2.80167
"Plate with Hole-1".18, BF, -2.96629
"Plate with Hole-1".19, BF, -2.61316
"Plate with Hole-1".20, BF, -2.25865
** ... 70 like lines cut
** Name: Load-2   Type: Surface heat flux Using Field: Flux
*Dflux
"Plate with Hole-1".12, S4, 0.590384
"Plate with Hole-1".14, S1, 0.552786
"Plate with Hole-1".16, S4, 0.552786
"Plate with Hole-1".23, S4, 0.521087
"Plate with Hole-1".29, S1, 0.628353
"Plate with Hole-1".47, S4, 0.590384
"Plate with Hole-1".49, S2, 0.628353
"Plate with Hole-1".58, S2, 0.521087
"Plate with Hole-1".67, S4, 0.502481
"Plate with Hole-1".70, S2, 0.502481
** 
** OUTPUT REQUESTS
** 
*Restart, write, frequency=0
** 
** FIELD OUTPUT: F-Output-1
** 
*Output, field, variable=PRESELECT
*Output, history, frequency=0
*End Step
