*Heading
 Square with Hole and Dirchlet and Neuman BCs - Triangular High Mesh Density
** Job name: sqhole_tri_high_dirneubc Model name: Model-1
** Generated by: Abaqus/CAE 6.13-4
*Preprint, echo=NO, model=NO, history=NO, contact=NO
**
** PARTS
**
*Part, name="Plate with Hole"
*Node
      1,  0.248200342, 0.0299431589
      2,  0.242827252, 0.0594552159
      3,  0.233958125, 0.0881112814
      4,  0.221720621,  0.115498781
      5,  0.206290931,  0.141223401
      6,  0.187891215,  0.164914802
      7,  0.166786373,  0.186231852
      8,  0.143280253,  0.204867676
      9,  0.117711291,  0.220553964
     10, 0.0904475972,   0.23306486
     11, 0.0618817061,  0.242220268
     12, 0.0324248821,  0.247888342
     13, 0.00250122626,  0.249987483
     14, -0.0174945667,   0.24938713
     15, -0.0472383834,  0.245496511
     16, -0.0763020962,  0.238071397
     17, -0.104267262,  0.227218702
     18, -0.130731255,  0.213094667
     19, -0.155313075,  0.195902646
     20, -0.177658811,  0.175890163
** ... 33671 like lines cut
*Element, type=DC2D6
    1,  2644,  2475,  1692,  8563,  8564,  8565
    2,  3199,  1692,  3122,  8566,  8567,  8568
    3,  3552,  1691,  3500,  8569,  8570,  8571
    4,  4500,  1690,  4139,  8572,  8573,  8574
    5,  5669,  1642,  5417,  8575,  8576,  8577
    6,  6044,  1688,  5855,  8578,  8579,  8580
    7,  7555,  7375,  7182,  8581,  8582,  8583
    8,  7931,  7708,  7765,  8584,  8585,  8586
    9,  7928,  7822,  7657,  8587,  8588,  8589
   10,  8008,  7822,  1637,  8590,  8591,  8592
   11,  8158,  8037,  8069,  8593,  8594,  8595
   12,  8281,  8230,  8259,  8596,  8597,  8598
   13,  8232,  8143,  8217,  8599,  8600,  8601
   14,  8218,  8076,  8143,  8602,  8603,  8604
   15,  8113,  8004,  7920,  8605,  8606,  8607
   16,  7870,  7671,  1630,  8608,  8609,  8610
   17,  7929,  7807,  1629,  8611,  8612,  8613
   18,  8352,  6893,  7237,  8614,  8615,  8616
   19,  7091,  6677,  6974,  8617,  8618,  8619
   20,  6794,  6148,  6544,  8620,  8621,  8622
** ... 16547 like lines cut
*Nset, nset=Set-1, generate
     1,  33691,      1
*Elset, elset=Set-1, generate
     1,  16567,      1
** Section: Section-1
*Solid Section, elset=Set-1, material=Material-1
,
*End Part
**  
**
** ASSEMBLY
**
*Assembly, name=Assembly
**  
*Instance, name="Plate with Hole-1", part="Plate with Hole"
*End Instance
**  
*Nset, nset=Set-1, instance="Plate with Hole-1"
     1,     2,     3,     4,     5,     6,     7,     8,     9,    10,    11,    12,    13,    14,    15,    16
    17,    18,    19,    20,    21,    22,    23,    24,    25,    26,    27,    28,    29,    30,    31,    32
    33,    34,    35,    36,    37,    38,    39,    40,    41,    42,    43,    44,    45,    46,    47,    48
    49,    50,    51,    52,    53,  1975,  1976,  1977,  1978,  1979,  1980,  1981,  1982,  1983,  1984,  1985
  1986,  1987,  1988,  1989,  1990,  1991,  1992,  1993,  1994,  1995,  1996,  1997,  1998,  1999,  2000,  2001
  2002,  2003,  2004,  2005,  2006,  2007,  2008,  2009,  2010,  2011,  2012,  2013,  2014,  2015,  2016,  2017
  2018,  2019,  2020,  2021,  2022,  2023,  2024,  2025,  2026,  2027,  2028,  2029,  2030,  2031,  2032,  2033
  2034,  2035,  2036,  2037,  2038,  2039,  2040,  2041,  2042,  2043,  2044,  2045,  2046,  2047,  2048,  2049
  2050,  2051,  2052,  2053,  2054,  2055,  2056,  2057,  2058,  2059,  2060,  2061,  2062,  2063,  2064,  2065
  2066,  2067,  2068,  2069,  2070,  2071,  2072,  2073,  2074,  2075,  2076,  2285,  2286,  8924,  8930,  8933
  8954,  9072,  9175,  9178,  9181,  9421,  9429,  9432,  9460,  9468,  9473,  9506,  9528,  9531,  9540,  9641
  9689,  9697,  9726,  9731,  9734,  9783,  9834,  9863,  9880,  9888,  9890,  9907,  9910, 14030, 14150, 14152
 14250, 14257, 14376, 14968, 15380, 15386, 15847, 15955, 15995, 16385, 17826, 17926, 19019, 19021, 19023, 19024
 19026, 19029, 19031, 19032, 19034, 19041, 19045, 19046, 19048, 19050, 19053, 19055, 19060, 19062, 19066, 19070
 19076, 19078, 19081, 19083, 19090, 19092, 19097, 19099, 19103, 19105, 19107, 19113, 19116, 19117, 19120, 19124
 19132, 19134, 19136, 19138, 19143, 19146, 19148, 19151, 19155, 19637, 19639, 20778, 20780, 20805, 20820, 20823
 20826, 20830, 20836, 20839, 20842, 20846, 20853, 20862, 20867, 20871, 20881, 20882, 20887, 20890, 20894, 20897
 20902, 20907, 20913, 20920, 20925, 20928, 20932, 20935, 20946, 20951, 20954, 20961, 20965, 20968, 20973, 20974
 20977, 21006, 21016, 21019, 21027, 21028, 21029, 21033, 21034, 21035, 21042, 21046, 21047, 21072, 21074, 21079
 21081, 21104, 21108, 21205, 21217, 21219, 21223, 21226, 21720, 33650
*Elset, elset=Set-1, instance="Plate with Hole-1"
   122,   124,   125,   132,   172,   207,   208,   209,   290,   293,   294,   304,   307,   309,   320,   328
   330,   333,   368,   385,   388,   399,   401,   402,   419,   437,   447,   453,   456,   457,   463,   464
  1873,  1915,  1916,  1951,  1954,  1999,  2213,  2366,  2368,  2541,  2583,  2598,  2748,  3291,  3327,  3739
  3740,  3741,  3742,  3743,  3744,  3745,  3746,  3747,  3750,  3752,  3753,  3754,  3755,  3756,  3757,  3759
  3760,  3762,  3764,  3766,  3767,  3768,  3769,  3772,  3773,  3776,  3777,  3779,  3780,  3781,  3784,  3785
  3786,  3787,  3789,  3793,  3794,  3795,  3796,  3798,  3799,  3800,  3801,  3803,  4014,  4015,  4808,  4810
  4821,  4829,  4831,  4833,  4836,  4839,  4841,  4843,  4845,  4849,  4855,  4859,  4861,  4865,  4866,  4869
  4872,  4874,  4876,  4879,  4882,  4888,  4894,  4897,  4899,  4902,  4906,  4915,  4919,  4921,  4925,  4929
  4931,  4934,  4936,  4939,  4963,  4968,  4970,  4975,  4976,  4977,  4979,  4980,  4981,  4985,  4987,  4988
  5001,  5003,  5007,  5009,  5028,  5032,  5108,  5116,  5118,  5121,  5124,  5540, 16467
*Nset, nset=Set-2, instance="Plate with Hole-1"
   101,   102,   103,   104,   105,   106,   107,   108,   109,   110,   111,   112,   113,   114,   115,   116
   117,   118,   119,   120,   121,   122,   123,   124,   125,   126,   127,   128,   129,   130,   131,   132
   133,   134,   135,   136,   137,   138,   139,   140,   141,   142,   143,   144,   145,   146,   147,   148
   149,   150,   198,   199,   200,   201,   202,   203,   204,   205,   206,   207,   208,   209,   210,   211
   212,   213,   214,   215,   216,   217,   218,   219,   220,   221,   222,   223,   224,   225,   226,   227
   228,   229,   230,   231,   232,   233,   234,   235,   236,   237,   238,   239,   240,   241,   242,   243
   244,   245,  2129,  2130,  2131,  2132,  2133,  2134,  2135,  2136,  2137,  2138,  2139,  2140,  2141,  2142
  2143,  2144,  2145,  2146,  2147,  2148,  2149,  2150,  2151,  2152,  2153,  2154,  2155,  2156,  2157,  2158
  2159,  2160,  2161,  2162,  2163,  2164,  2165,  2166,  2167,  2168,  2169,  2170,  2171,  2172,  2173,  2174
  2175,  2176,  2177,  2178,  2179,  2180,  2233,  2234,  2235,  2236,  2237,  2238,  2239,  2240,  2241,  2242
  2243,  2244,  2245,  2246,  2247,  2248,  2249,  2250,  2251,  2252,  2253,  2254,  2255,  2256,  2257,  2258
  2259,  2260,  2261,  2262,  2263,  2264,  2265,  2266,  2267,  2268,  2269,  2270,  2271,  2272,  2273,  2274
  2275,  2276,  2277,  2278,  2279,  2280,  2281,  2282,  2283,  2284,  8716,  9310,  9315,  9321, 10054, 10057
 10060, 10063, 10066, 10093, 10096, 10099, 10102, 10126, 10129, 10132, 10135, 10138, 12301, 12349, 12392, 12431
 12467, 12499, 12656, 12755, 12775, 12792, 12807, 13856, 13877, 13880, 17080, 17201, 17324, 17448, 17570, 18055
 18063, 18404, 19264, 19269, 19281, 19284, 19287, 19290, 19297, 19315, 19318, 19321, 19328, 19346, 19349, 19352
 19377, 19380, 19383, 19390, 19497, 19502, 19514, 19517, 19520, 19523, 19530, 19548, 19551, 19554, 19561, 19583
 19586, 19589, 19621, 19624, 19627, 19634, 19661, 19665, 19679, 19682, 19685, 19700, 19703, 19706, 19711, 19714
 19718, 19732, 19735, 19740, 19743, 19761, 19766, 19769, 19772, 19785, 19789, 19801, 19803, 19806, 19809, 19812
 19814, 19817, 19820, 19824, 19838, 19840, 19843, 19846, 19849, 19852, 19853, 19857, 19861, 19875, 20056, 20059
** ... 6 like lines cut
*Elset, elset=Set-2, instance="Plate with Hole-1"
   52,  252,  254,  256,  515,  516,  517,  518,  519,  528,  529,  530,  531,  539,  540,  541
  542,  543, 1279, 1296, 1311, 1324, 1336, 1347, 1400, 1434, 1441, 1447, 1452, 1811, 1818, 1819
 3010, 3056, 3102, 3150, 3194, 3373, 3376, 3507, 3857, 3859, 3864, 3865, 3866, 3867, 3870, 3878
 3879, 3880, 3883, 3891, 3892, 3893, 3904, 3905, 3906, 3909, 3961, 3963, 3968, 3969, 3970, 3971
 3974, 3982, 3983, 3984, 3987, 3995, 3996, 3997, 4008, 4009, 4010, 4013, 4029, 4031, 4038, 4040
 4042, 4050, 4052, 4054, 4057, 4059, 4061, 4067, 4069, 4071, 4073, 4081, 4083, 4085, 4087, 4095
 4097, 4105, 4107, 4109, 4111, 4113, 4115, 4117, 4119, 4121, 4129, 4131, 4133, 4135, 4137, 4139
 4140, 4143, 4145, 4153, 4247, 4249, 4259, 4261, 4262, 4265, 4267, 4269, 4271, 4273, 4277, 4279
 4281, 4283, 4285, 4299, 4303, 4397, 4398, 4407, 4409, 4410, 4413, 4414, 4417, 4419, 4429, 4431
 4433, 4435, 4441, 4443, 4444, 4447, 4542, 4545, 4546, 4557, 4562, 4564, 4567, 4569, 4571, 4579
 4585, 4587, 4589, 4591, 4592, 4601, 4603, 4605, 4607, 4609, 4610, 4612, 4615, 4617, 4625, 4722
 4725, 4726, 4736, 4742, 4744, 4747, 4749, 4751, 4758, 4764, 4766, 4768, 4770, 4772, 4780, 4782
 4784, 4786, 4788, 4790, 4792, 4794, 4796, 4804
*Nset, nset=Set-3, instance="Plate with Hole-1", generate
     1,  33691,      1
*Elset, elset=Set-3, instance="Plate with Hole-1", generate
     1,  16567,      1
*Elset, elset=_Surf-1_S2, internal, instance="Plate with Hole-1"
  191,  193,  513,  545,  606,  635,  663,  690,  716,  741,  765,  788,  810,  852,  870,  888
  904,  920,  934,  947,  959,  970,  980,  989, 1004, 1010, 1015, 1019, 1022, 1023, 1040, 1057
 1074, 1091, 1108, 1125, 1142, 1159, 1176, 1193, 1210, 1227, 1244, 1261, 1278, 3807, 3812, 3813
 3814, 3815, 3818, 3826, 3827, 3828, 3831, 3839, 3840, 3841, 3852, 3853, 3854, 4013, 4032, 4034
 4036, 4075, 4156, 4170, 4174, 4186, 4196, 4200, 4232, 4242, 4452, 4455, 4456, 4467, 4473, 4475
 4477, 4479, 4481, 4489, 4495, 4497, 4499, 4501, 4502, 4511, 4513, 4515, 4517, 4519, 4521, 4523
 4525, 4527, 4535
*Elset, elset=_Surf-1_S1, internal, instance="Plate with Hole-1"
 3857,
*Surface, type=ELEMENT, name=Surf-1
_Surf-1_S2, S2
_Surf-1_S1, S1
*Elset, elset=_Surf-2_S2, internal, instance="Plate with Hole-1"
   58,   60, 1458, 1459, 1468, 1477, 1486, 1504, 1513, 1522, 1531, 1540, 1549, 1558, 1567, 1576
 1585, 1594, 1612, 1621, 1630, 1639, 1648, 1657, 1666, 1675, 1684, 1693, 1702, 1711, 1720, 1729
 1738, 1747, 1756, 1765, 1774, 1783, 1792, 1801, 1810, 3909, 3911, 3916, 3917, 3918, 3919, 3922
 3930, 3931, 3932, 3935, 3943, 3944, 3945, 3956, 3957, 3958, 4027, 4044, 4046, 4048, 4291, 4297
 4300, 4305, 4310, 4314, 4326, 4336, 4340, 4352, 4378, 4388, 4632, 4635, 4636, 4647, 4653, 4655
 4657, 4659, 4661, 4669, 4675, 4677, 4679, 4681, 4683, 4691, 4693, 4695, 4697, 4699, 4701, 4703
 4705, 4707, 4715
*Elset, elset=_Surf-2_S1, internal, instance="Plate with Hole-1"
 3961,
*Surface, type=ELEMENT, name=Surf-2
_Surf-2_S2, S2
_Surf-2_S1, S1
*End Assembly
** 
** MATERIALS
** 
*Material, name=Material-1
*Conductivity
1.,
** ----------------------------------------------------------------
** 
** STEP: Analysis
** 
*Step, name=Analysis, nlgeom=NO
*Heat Transfer, steady state, deltmx=0.
1., 1., 1e-05, 1., 
** 
** BOUNDARY CONDITIONS
** 
** Name: External Type: Temperature Using Analytical Field: TempBC
*Boundary
"Plate with Hole-1".101, 11, 11, 0.142052
"Plate with Hole-1".102, 11, 11, 0.142052
"Plate with Hole-1".103, 11, 11, 0.126634
"Plate with Hole-1".104, 11, 11, 0.111968
"Plate with Hole-1".105, 11, 11, 0.0980458
"Plate with Hole-1".106, 11, 11, 0.08486
"Plate with Hole-1".107, 11, 11, 0.0724024
"Plate with Hole-1".108, 11, 11, 0.055061
"Plate with Hole-1".109, 11, 11, 0.0443826
"Plate with Hole-1".110, 11, 11, 0.0343979
"Plate with Hole-1".111, 11, 11, 0.0250956
"Plate with Hole-1".112, 11, 11, 0.0164639
"Plate with Hole-1".113, 11, 11, 0.00849056
"Plate with Hole-1".114, 11, 11, 0.0011628
"Plate with Hole-1".115, 11, 11, -0.00553244
"Plate with Hole-1".116, 11, 11, -0.0116085
"Plate with Hole-1".117, 11, 11, -0.0170785
"Plate with Hole-1".118, 11, 11, -0.0219558
"Plate with Hole-1".119, 11, 11, -0.0262531
"Plate with Hole-1".120, 11, 11, -0.0299827
** ... 382 like lines cut
** Name: Internal Type: Temperature
*Boundary
Set-1, 11, 11
** 
** LOADS
** 
** Name: Bottom Flux   Type: Surface heat flux Using Field: Flux
*Dflux
"Plate with Hole-1".58, S2, 0.596157
"Plate with Hole-1".60, S2, 0.58846
"Plate with Hole-1".1458, S2, 0.641104
"Plate with Hole-1".1459, S2, 0.580778
"Plate with Hole-1".1468, S2, 0.573148
"Plate with Hole-1".1477, S2, 0.565611
"Plate with Hole-1".1486, S2, 0.558214
"Plate with Hole-1".1504, S2, 0.544039
"Plate with Hole-1".1513, S2, 0.537374
"Plate with Hole-1".1522, S2, 0.531069
"Plate with Hole-1".1531, S2, 0.525186
"Plate with Hole-1".1540, S2, 0.519785
"Plate with Hole-1".1549, S2, 0.514929
"Plate with Hole-1".1558, S2, 0.508788
"Plate with Hole-1".1567, S2, 0.505532
"Plate with Hole-1".1576, S2, 0.502998
"Plate with Hole-1".1585, S2, 0.501221
"Plate with Hole-1".1594, S2, 0.500225
"Plate with Hole-1".1612, S2, 0.500624
"Plate with Hole-1".1621, S2, 0.502013
** ... 80 like lines cut
** Name: Heat Source   Type: Body heat flux Using Field: HeatSource
*Dflux
"Plate with Hole-1".1, BF, -3.16835
"Plate with Hole-1".2, BF, -3.15422
"Plate with Hole-1".3, BF, -3.13022
"Plate with Hole-1".4, BF, -3.10708
"Plate with Hole-1".5, BF, -3.05986
"Plate with Hole-1".6, BF, -3.04964
"Plate with Hole-1".7, BF, -2.9963
"Plate with Hole-1".8, BF, -2.96278
"Plate with Hole-1".9, BF, -2.93486
"Plate with Hole-1".10, BF, -2.91085
"Plate with Hole-1".11, BF, -2.88612
"Plate with Hole-1".12, BF, -2.83354
"Plate with Hole-1".13, BF, -2.80296
"Plate with Hole-1".14, BF, -2.78295
"Plate with Hole-1".15, BF, -2.73574
"Plate with Hole-1".16, BF, -2.66729
"Plate with Hole-1".17, BF, -2.63368
"Plate with Hole-1".18, BF, -2.65046
"Plate with Hole-1".19, BF, -2.64045
"Plate with Hole-1".20, BF, -2.59167
** ... 16547 like lines cut
** Name: Load-2   Type: Surface heat flux Using Field: Flux
*Dflux
"Plate with Hole-1".191, S2, 0.517285
"Plate with Hole-1".193, S2, 0.522421
"Plate with Hole-1".513, S2, 0.641104
"Plate with Hole-1".545, S2, 0.6375
"Plate with Hole-1".606, S2, 0.622778
"Plate with Hole-1".635, S2, 0.615259
"Plate with Hole-1".663, S2, 0.607659
"Plate with Hole-1".690, S2, 0.596157
"Plate with Hole-1".716, S2, 0.58846
"Plate with Hole-1".741, S2, 0.580778
"Plate with Hole-1".765, S2, 0.573148
"Plate with Hole-1".788, S2, 0.565611
"Plate with Hole-1".810, S2, 0.558214
"Plate with Hole-1".852, S2, 0.544039
"Plate with Hole-1".870, S2, 0.537374
"Plate with Hole-1".888, S2, 0.531069
"Plate with Hole-1".904, S2, 0.525186
"Plate with Hole-1".920, S2, 0.519785
"Plate with Hole-1".934, S2, 0.514929
"Plate with Hole-1".947, S2, 0.508788
** ... 80 like lines cut
** 
** OUTPUT REQUESTS
** 
*Restart, write, frequency=0
** 
** FIELD OUTPUT: F-Output-1
** 
*Output, field, variable=PRESELECT
*Output, history, frequency=0
*End Step
