*Heading
** Job name: sqhole_quad_mod_dirneubc Model name: Model-1
** Generated by: Abaqus/CAE 6.13-4
*Preprint, echo=NO, model=NO, history=NO, contact=NO
**
** PARTS
**
*Part, name=Part-1
*Node
      1, -0.176776692,  0.176776692
      2,        -0.25,           0.
      3, -0.176776692, -0.176776692
      4,           0.,        -0.25
      5,  0.176776692, -0.176776692
      6,         0.25,           0.
      7,  0.176776692,  0.176776692
      8,           0.,         0.25
      9,          0.5,          0.5
     10,         -0.5,          0.5
     11,         -0.5,         -0.5
     12,          0.5,         -0.5
     13,         0.25,          0.5
     14,           0.,          0.5
     15,        -0.25,          0.5
     16,         -0.5,         0.25
     17,         -0.5,           0.
     18,         -0.5,        -0.25
     19,        -0.25,         -0.5
     20,           0.,         -0.5
** ... 73 like lines cut
*Element, type=DC2D8
 1, 34, 26, 13, 14, 36, 37, 38, 39
 2, 23, 24, 26,  6, 40, 41, 42, 43
 3, 22, 23,  6, 33, 44, 43, 45, 46
 4, 33,  6,  5, 35, 45, 47, 48, 49
 5, 19, 20, 31, 27, 50, 51, 52, 53
 6, 27, 18, 11, 19, 54, 55, 56, 53
 7,  2, 17, 18, 27, 57, 58, 54, 59
 8, 25, 16, 17,  2, 60, 61, 57, 62
 9, 16, 25, 15, 10, 60, 63, 64, 65
10, 30, 14, 15, 25, 66, 67, 63, 68
11,  8, 28, 30,  1, 69, 70, 71, 72
12, 28, 29, 26, 34, 73, 74, 36, 75
13,  5,  4, 32, 35, 76, 77, 78, 48
14, 12, 22, 33, 21, 79, 46, 80, 81
15,  7,  6, 26, 29, 82, 42, 74, 83
16, 24,  9, 13, 26, 84, 85, 37, 41
17, 25,  2,  1, 30, 62, 86, 71, 68
18, 27, 31,  3,  2, 52, 87, 88, 59
19, 14, 30, 28, 34, 66, 70, 75, 39
20,  8,  7, 29, 28, 89, 83, 73, 69
21, 21, 33, 35, 20, 80, 49, 90, 91
22,  4,  3, 31, 32, 92, 87, 93, 77
23, 32, 31, 20, 35, 93, 51, 90, 78
*Nset, nset=Set-1, generate
  1,  93,   1
*Elset, elset=Set-1, generate
  1,  23,   1
** Section: Section-1
*Solid Section, elset=Set-1, material=Material-1
,
*End Part
**  
**
** ASSEMBLY
**
*Assembly, name=Assembly
**  
*Instance, name=Part-1-1, part=Part-1
*End Instance
**  
*End Assembly
** 
** MATERIALS
** 
*Material, name=Material-1
*Conductivity
1.,
