*Heading
 Square with Hole and Dirchlet and Neuman BCs - Triangular Moderate Mesh Density
** Job name: sqhole_tri_mod_dirneubc Model name: Model-1
** Generated by: Abaqus/CAE 6.13-4
*Preprint, echo=NO, model=NO, history=NO, contact=NO
**
** PARTS
**
*Part, name="Plate with Hole"
*Node
      1,  0.230969876, 0.0956708565
      2,  0.176776692,  0.176776692
      3, 0.0956708565,  0.230969876
      4,           0.,         0.25
      5, -0.0956708565,  0.230969876
      6, -0.176776692,  0.176776692
      7, -0.230969876, 0.0956708565
      8,        -0.25,           0.
      9, -0.230969876, -0.0956708565
     10, -0.176776692, -0.176776692
     11, -0.0956708565, -0.230969876
     12,           0.,        -0.25
     13, 0.0956708565, -0.230969876
     14,  0.176776692, -0.176776692
     15,  0.230969876, -0.0956708565
     16,         0.25,           0.
     17,          0.5,          0.5
     18,         -0.5,          0.5
     19,         -0.5,         -0.5
     20,          0.5,         -0.5
** ... 388 like lines cut
*Element, type=DC2D6
  1, 103,  50,  93, 117, 118, 119
  2, 104,  92,  97, 120, 121, 122
  3,  91,  90,  45, 123, 124, 125
  4,  73,  68,  70, 126, 127, 128
  5, 107,  88,  63, 129, 130, 131
  6, 114, 105,  61, 132, 133, 134
  7,  98,  41,  88, 135, 136, 137
  8, 105,  87,  99, 138, 139, 140
  9,  86,  85,  36, 141, 142, 143
 10,  74,  66,  58, 144, 145, 146
 11, 100,  32,  74, 147, 148, 149
 12, 106,  82, 101, 150, 151, 152
 13, 108, 106, 100, 153, 154, 155
 14,  81,  80,  27, 156, 157, 158
 15,  80,  75,  26, 159, 160, 161
 16,  79,  62,  78, 162, 163, 164
 17, 102,  23,  78, 165, 166, 167
 18, 111, 109,  59, 168, 169, 170
 19,  96,  95,  55, 171, 172, 173
 20, 113,  57,  76, 174, 175, 176
** ... 156 like lines cut
*Nset, nset=Set-1, generate
   1,  408,    1
*Elset, elset=Set-1, generate
   1,  176,    1
** Section: Section-1
*Solid Section, elset=Set-1, material=Material-1
,
*End Part
**  
**
** ASSEMBLY
**
*Assembly, name=Assembly
**  
*Instance, name="Plate with Hole-1", part="Plate with Hole"
*End Instance
**  
*Nset, nset=Set-1, instance="Plate with Hole-1"
   1,   2,   3,   4,   5,   6,   7,   8,   9,  10,  11,  12,  13,  14,  15,  16
 272, 274, 279, 284, 287, 291, 293, 297, 300, 301, 303, 310, 312, 315, 316, 320
*Elset, elset=Set-1, instance="Plate with Hole-1"
 58, 59, 61, 63, 65, 67, 69, 72, 74, 75, 77, 80, 81, 84, 85, 88
*Nset, nset=Set-2, instance="Plate with Hole-1"
  17,  18,  19,  20,  30,  31,  32,  33,  34,  35,  36,  37,  38,  48,  49,  50
  51,  52,  53,  54,  55,  56, 203, 224, 245, 267, 270, 325, 332, 334, 349, 351
 354, 357, 358, 359, 376, 377, 379, 381, 390, 397
*Elset, elset=Set-2, instance="Plate with Hole-1"
  30,  39,  47,  56,  57,  91,  96,  97, 108, 109, 111, 113, 114, 115, 128, 129
 131, 133, 137, 144
*Nset, nset=Set-3, instance="Plate with Hole-1", generate
   1,  408,    1
*Elset, elset=Set-3, instance="Plate with Hole-1", generate
   1,  176,    1
*Elset, elset=_Surf-1_S2, internal, instance="Plate with Hole-1"
  30,  56,  93,  94,  99, 101, 104, 105, 135, 147
*Surface, type=ELEMENT, name=Surf-1
_Surf-1_S2, S2
*Elset, elset=_Surf-2_S3, internal, instance="Plate with Hole-1"
 39,
*Elset, elset=_Surf-2_S2, internal, instance="Plate with Hole-1"
  47,  89, 118, 119, 121, 122, 124, 125, 140
*Surface, type=ELEMENT, name=Surf-2
_Surf-2_S3, S3
_Surf-2_S2, S2
*End Assembly
** 
** MATERIALS
** 
*Material, name=Material-1
*Conductivity
1.,
** ----------------------------------------------------------------
** 
** STEP: Analysis
** 
*Step, name=Analysis, nlgeom=NO
*Heat Transfer, steady state, deltmx=0.
1., 1., 1e-05, 1., 
** 
** BOUNDARY CONDITIONS
** 
** Name: External Type: Temperature Using Analytical Field: TempBC
*Boundary
"Plate with Hole-1".17, 11, 11, 0.142052
"Plate with Hole-1".18, 11, 11, 0.142052
"Plate with Hole-1".19, 11, 11, 0.142052
"Plate with Hole-1".20, 11, 11, 0.142052
"Plate with Hole-1".30, 11, 11, 0.0724024
"Plate with Hole-1".31, 11, 11, 0.0206967
"Plate with Hole-1".32, 11, 11, -0.0144184
"Plate with Hole-1".33, 11, 11, -0.0345371
"Plate with Hole-1".34, 11, 11, -0.0410534
"Plate with Hole-1".35, 11, 11, -0.0345371
"Plate with Hole-1".36, 11, 11, -0.0144184
"Plate with Hole-1".37, 11, 11, 0.0206967
"Plate with Hole-1".38, 11, 11, 0.0724024
"Plate with Hole-1".48, 11, 11, 0.0724024
"Plate with Hole-1".49, 11, 11, 0.0206967
"Plate with Hole-1".50, 11, 11, -0.0144184
"Plate with Hole-1".51, 11, 11, -0.0345371
"Plate with Hole-1".52, 11, 11, -0.0410534
"Plate with Hole-1".53, 11, 11, -0.0345371
"Plate with Hole-1".54, 11, 11, -0.0144184
** ... 22 like lines cut
** Name: Internal Type: Temperature
*Boundary
Set-1, 11, 11
** 
** LOADS
** 
** Name: Bottom Flux   Type: Surface heat flux Using Field: Flux
*Dflux
"Plate with Hole-1".39, S3, 0.628353
"Plate with Hole-1".47, S2, 0.628353
"Plate with Hole-1".89, S2, 0.502481
"Plate with Hole-1".118, S2, 0.590384
"Plate with Hole-1".119, S2, 0.521087
"Plate with Hole-1".121, S2, 0.502481
"Plate with Hole-1".122, S2, 0.521087
"Plate with Hole-1".124, S2, 0.552786
"Plate with Hole-1".125, S2, 0.590384
"Plate with Hole-1".140, S2, 0.552786
** Name: Heat Source   Type: Body heat flux Using Field: HeatSource
*Dflux
"Plate with Hole-1".1, BF, -2.95866
"Plate with Hole-1".2, BF, -3.00627
"Plate with Hole-1".3, BF, -2.97693
"Plate with Hole-1".4, BF, -2.59537
"Plate with Hole-1".5, BF, -2.71646
"Plate with Hole-1".6, BF, -2.69073
"Plate with Hole-1".7, BF, -2.95879
"Plate with Hole-1".8, BF, -3.00614
"Plate with Hole-1".9, BF, -2.97659
"Plate with Hole-1".10, BF, -2.60267
"Plate with Hole-1".11, BF, -2.95886
"Plate with Hole-1".12, BF, -3.00662
"Plate with Hole-1".13, BF, -2.86695
"Plate with Hole-1".14, BF, -2.97249
"Plate with Hole-1".15, BF, -2.9004
"Plate with Hole-1".16, BF, -2.73931
"Plate with Hole-1".17, BF, -2.96151
"Plate with Hole-1".18, BF, -2.72541
"Plate with Hole-1".19, BF, -3.06704
"Plate with Hole-1".20, BF, -2.72767
** ... 156 like lines cut
** Name: Load-2   Type: Surface heat flux Using Field: Flux
*Dflux
"Plate with Hole-1".30, S2, 0.628353
"Plate with Hole-1".56, S2, 0.628353
"Plate with Hole-1".93, S2, 0.502481
"Plate with Hole-1".94, S2, 0.521087
"Plate with Hole-1".99, S2, 0.521087
"Plate with Hole-1".101, S2, 0.502481
"Plate with Hole-1".104, S2, 0.552786
"Plate with Hole-1".105, S2, 0.590384
"Plate with Hole-1".135, S2, 0.590384
"Plate with Hole-1".147, S2, 0.552786
** 
** OUTPUT REQUESTS
** 
*Restart, write, frequency=0
** 
** FIELD OUTPUT: F-Output-1
** 
*Output, field, variable=PRESELECT
*Output, history, frequency=0
*End Step
