*Heading
 Square with Hole and Dirchlet and Neuman BCs - Quadrilateral High Mesh Density
** Job name: sqhole_quad_high_dirneubc Model name: Model-1
** Generated by: Abaqus/CAE 6.13-4
*Preprint, echo=NO, model=NO, history=NO, contact=NO
**
** PARTS
**
*Part, name="Plate with Hole"
*Node
      1,  0.248223022, 0.0297545474
      2,  0.242917329, 0.0590861104
      3,  0.234158382, 0.0875777155
      4,  0.222070649,  0.114824325
      5,  0.206826001,  0.140438601
      6,  0.188641161,  0.164056435
      7,  0.167774603,  0.185342059
      8,  0.144522995,  0.203992903
      9,  0.119216874,  0.219743803
     10, 0.0922159776,  0.232370853
     11, 0.0639041588,  0.241694555
     12, 0.0346838832,  0.247582361
     13, 0.00497054681,  0.249950588
     14, -0.024813449,  0.248765543
     15, -0.0542447008,   0.24404408
     16, -0.0829048231,  0.235853329
     17, -0.110386372,  0.224309713
     18, -0.136298686,  0.209577352
     19, -0.160273403,  0.191865668
     20, -0.181969702,  0.171426445
** ... 30022 like lines cut
*Element, type=DC2D8
   1,  2585,  2731,  1664,  4550, 10108, 10109, 10110, 10111
   2,  1664,  2876,  2982,  3499, 10112, 10113, 10114, 10115
   3,  8488,  3410,  5011,  1663, 10116, 10117, 10118, 10119
   4,  1662,  3850,  4455,  4872, 10120, 10121, 10122, 10123
   5,  1661,  4796,  5047,  5472, 10124, 10125, 10126, 10127
   6,  1660,  5668,  5996,  6297, 10128, 10129, 10130, 10131
   7,  1612,  7247,  6915, 10036, 10132, 10133, 10134, 10135
   8, 10032,  7796,  7488,  7607, 10136, 10137, 10138, 10139
   9,  7989,  8075,  7994,  1611, 10140, 10141, 10142, 10143
  10,  7700,  7837,  7841,  1655, 10144, 10145, 10146, 10147
  11,  7841,  8066,  7984,  1654, 10148, 10149, 10150, 10151
  12, 10025,  8157,  8202,  1607, 10152, 10153, 10154, 10155
  13,  7955,  7861,  1653, 10024, 10156, 10157, 10158, 10159
  14,  7525,  7640, 10013,  1606, 10160, 10161, 10162, 10163
  15,  7567,  7525,  1606,  8064, 10164, 10163, 10165, 10166
  16,  7610,  1604, 10057,  7489, 10167, 10168, 10169, 10170
  17,  7499,  7797,  7672, 10006, 10171, 10172, 10173, 10174
  18, 10007,  7573,  1648,  7672, 10175, 10176, 10177, 10178
  19,  8004,  7563,  7758,  1602, 10179, 10180, 10181, 10182
  20,  1601,  7804,  7563,  8004, 10183, 10184, 10179, 10185
** ... 9808 like lines cut
*Nset, nset=Set-1, generate
     1,  30042,      1
*Elset, elset=Set-1, generate
    1,  9828,     1
** Section: Section-1
*Solid Section, elset=Set-1, material=Material-1
,
*End Part
**  
**
** ASSEMBLY
**
*Assembly, name=Assembly
**  
*Instance, name="Plate with Hole-1", part="Plate with Hole"
*End Instance
**  
*Nset, nset=Set-1, instance="Plate with Hole-1"
     1,     2,     3,     4,     5,     6,     7,     8,     9,    10,    11,    12,    13,    14,    15,    16
    17,    18,    19,    20,    21,    22,    23,    24,    25,    26,    27,    28,    29,    30,    31,    32
    33,    34,    35,    36,    37,    38,    39,    40,    41,    42,    43,    44,    45,    46,    47,    48
    49,    50,    51,    52,    53,  1946,  1947,  1948,  1949,  1950,  1951,  1952,  1953,  1954,  1955,  1956
  1957,  1958,  1959,  1960,  1961,  1962,  1963,  1964,  1965,  1966,  1967,  1968,  1969,  1970,  1971,  1972
  1973,  1974,  1975,  1976,  1977,  1978,  1979,  1980,  1981,  1982,  1983,  1984,  1985,  1986,  1987,  1988
  1989,  1990,  1991,  1992,  1993,  1994,  1995,  1996,  1997,  1998,  1999,  2000,  2001,  2002,  2003,  2004
  2005,  2006,  2007,  2008,  2009,  2010,  2011,  2012,  2013,  2014,  2015,  2016,  2017,  2018,  2019,  2020
  2021,  2022,  2023,  2024,  2025,  2026,  2027,  2028,  2029,  2030,  2031,  2032,  2033,  2034,  2035,  2036
  2037,  2038,  2039,  2040,  2041,  2042,  2043,  2044,  2045,  2046,  2047,  2048,  2257,  2258, 10553, 10563
 10569, 10606, 10739, 10745, 10746, 10750, 10753, 10759, 10763, 10766, 10770, 10881, 10885, 10889, 10893, 11003
 11175, 11179, 11193, 11197, 11217, 11222, 11230, 11236, 11261, 11263, 11267, 11279, 11291, 11293, 11297, 11301
 11307, 11354, 11358, 11361, 11393, 11430, 11433, 11461, 11503, 11540, 11546, 11550, 11601, 11659, 11661, 11666
 11670, 11672, 11695, 11697, 11701, 11705, 11710, 11712, 11720, 11722, 11814, 11817, 11820, 11858, 11862, 13768
 14716, 16678, 16784, 16787, 16795, 16900, 16909, 17041, 17049, 17609, 17629, 17650, 17678, 17694, 17724, 17729
 18095, 18403, 18476, 18480, 18557, 18564, 18622, 18716, 18719, 18727, 19070, 21665, 21668, 21671, 21672, 21674
 21677, 21680, 21682, 21683, 21684, 21685, 21688, 21691, 21693, 21696, 21698, 21699, 21700, 21701, 21704, 21707
 21710, 21714, 21717, 21719, 21720, 21725, 21727, 21728, 21730, 21733, 21735, 21738, 21741, 22038, 22039, 22040
 22046, 22051, 22056, 22057, 22058, 22072, 22085, 22087, 22095, 22097, 22099, 22105, 22112, 22115, 22118, 22123
 22125, 22132, 22138, 22141, 22147, 22161, 22170, 22171, 22172, 22173, 22538, 22578
*Elset, elset=Set-1, instance="Plate with Hole-1"
  116,  119,  120,  130,  165,  166,  167,  168,  169,  170,  171,  172,  173,  201,  202,  203
  204,  233,  278,  279,  283,  284,  290,  292,  294,  296,  303,  304,  305,  308,  312,  313
  314,  316,  317,  330,  331,  332,  341,  350,  351,  359,  370,  381,  383,  384,  399,  414
  415,  416,  417,  418,  424,  425,  426,  427,  429,  430,  432,  433,  457,  458,  459,  469
  470,  977, 1230, 1763, 1797, 1798, 1800, 1832, 1835, 1874, 1876, 2041, 2047, 2053, 2060, 2065
 2075, 2076, 2193, 2294, 2315, 2316, 2340, 2342, 2363, 2392, 2393, 2396, 2508, 3362, 3363, 3364
 3365, 3366, 3367, 3368, 3369, 3370, 3371, 3372, 3374, 3375, 3376, 3377, 3378, 3379, 3380, 3381
 3382, 3383, 3384, 3385, 3387, 3388, 3389, 3391, 3393, 3394, 3395, 3396, 3397, 3398, 3399, 3569
 3570, 3571, 3574, 3577, 3580, 3581, 3582, 3588, 3598, 3601, 3606, 3608, 3610, 3613, 3619, 3621
 3622, 3625, 3627, 3630, 3633, 3637, 3644, 3654, 3666, 3667, 3668, 3670, 3970, 3995
*Nset, nset=Set-2, instance="Plate with Hole-1"
   101,   102,   103,   104,   105,   106,   107,   108,   109,   110,   111,   112,   113,   114,   115,   116
   117,   118,   119,   120,   121,   122,   123,   124,   125,   126,   127,   128,   129,   130,   131,   132
   133,   134,   135,   136,   137,   138,   139,   140,   141,   142,   143,   144,   145,   146,   147,   148
   149,   150,   198,   199,   200,   201,   202,   203,   204,   205,   206,   207,   208,   209,   210,   211
   212,   213,   214,   215,   216,   217,   218,   219,   220,   221,   222,   223,   224,   225,   226,   227
   228,   229,   230,   231,   232,   233,   234,   235,   236,   237,   238,   239,   240,   241,   242,   243
   244,   245,  2101,  2102,  2103,  2104,  2105,  2106,  2107,  2108,  2109,  2110,  2111,  2112,  2113,  2114
  2115,  2116,  2117,  2118,  2119,  2120,  2121,  2122,  2123,  2124,  2125,  2126,  2127,  2128,  2129,  2130
  2131,  2132,  2133,  2134,  2135,  2136,  2137,  2138,  2139,  2140,  2141,  2142,  2143,  2144,  2145,  2146
  2147,  2148,  2149,  2150,  2151,  2152,  2205,  2206,  2207,  2208,  2209,  2210,  2211,  2212,  2213,  2214
  2215,  2216,  2217,  2218,  2219,  2220,  2221,  2222,  2223,  2224,  2225,  2226,  2227,  2228,  2229,  2230
  2231,  2232,  2233,  2234,  2235,  2236,  2237,  2238,  2239,  2240,  2241,  2242,  2243,  2244,  2245,  2246
  2247,  2248,  2249,  2250,  2251,  2252,  2253,  2254,  2255,  2256, 10287, 10294, 10301, 10530, 10678, 10684
 10691, 10938, 10944, 10951, 11050, 11054, 11062, 11900, 11902, 11906, 11910, 11914, 11918, 11924, 11928, 11932
 11936, 11940, 11944, 11948, 11952, 11954, 11958, 11962, 11966, 11972, 11976, 11980, 11984, 11988, 11992, 11996
 11997, 12001, 12005, 12009, 12013, 14616, 14667, 14672, 14717, 14763, 14807, 14850, 14884, 14917, 14947, 14974
 14995, 15012, 15028, 15040, 15072, 15093, 15112, 15132, 15148, 15156, 15183, 15204, 15224, 15240, 16478, 16499
 16503, 16535, 16573, 17234, 18620, 18815, 19114, 19217, 19386, 19499, 19648, 19768, 19900, 20024, 20135, 20241
 20338, 20587, 20699, 20710, 21073, 21189, 21308, 21436, 21557, 21659, 21813, 21818, 21819, 21828, 21831, 21833
 21835, 21848, 21851, 21861, 21881, 21882, 21895, 21970, 21975, 21976, 21983, 21985, 21988, 21990, 21992, 22000
** ... 6 like lines cut
*Elset, elset=Set-2, instance="Plate with Hole-1"
   47,   49,   51,  110,  149,  151,  153,  216,  218,  220,  245,  246,  248,  480,  481,  482
  483,  484,  485,  486,  487,  488,  489,  490,  491,  492,  493,  494,  495,  496,  497,  498
  499,  500,  501,  502,  503,  504,  505,  506,  507,  508,  509, 1201, 1216, 1218, 1231, 1243
 1254, 1265, 1273, 1282, 1290, 1297, 1303, 1308, 1312, 1316, 1324, 1330, 1335, 1340, 1344, 1347
 1354, 1360, 1365, 1369, 1706, 1712, 1713, 1721, 1733, 1933, 2362, 2423, 2525, 2563, 2614, 2651
 2700, 2738, 2780, 2820, 2859, 2893, 2925, 3004, 3042, 3045, 3161, 3200, 3239, 3281, 3320, 3359
 3442, 3444, 3445, 3451, 3452, 3453, 3454, 3463, 3464, 3469, 3479, 3480, 3488, 3532, 3534, 3535
 3539, 3540, 3541, 3542, 3543, 3548, 3549, 3550, 3551, 3552, 3553, 3554, 3555, 3557, 3558, 3559
 3560, 3561, 3562, 3563, 3564, 3565, 3567, 3568, 3684, 3685, 3691, 3692, 3698, 3699, 3701, 3702
 3703, 3705, 3706, 3707, 3713, 3715, 3716, 3722, 3724, 3725, 3726, 3727, 3790, 3791, 3792, 3793
 3794, 3796, 3798, 3802, 3804, 3805, 3806, 3807, 3809, 3811, 3812, 3814, 3815, 3816, 3817, 3819
 3820, 3824, 3883, 3885, 3887, 3889, 3890, 3891, 3893, 3895, 3896, 3899, 3901, 3902, 3903, 3904
 3905, 3907, 3909, 3910, 3911, 3912, 3922, 3940
*Nset, nset=Set-3, instance="Plate with Hole-1", generate
     1,  30042,      1
*Elset, elset=Set-3, instance="Plate with Hole-1", generate
    1,  9828,     1
*Elset, elset=_Surf-1_S1, internal, instance="Plate with Hole-1"
  186,  187,  188,  479,  570,  598,  623,  646,  647,  671,  672,  695,  696,  719,  720,  741
  801,  819,  835,  851,  865,  879,  892,  893,  903,  904,  914,  915,  924,  945,  951,  956
  959,  961,  962,  963,  979,  980,  995, 1010, 1024, 1040, 1056, 1073, 1090, 1107, 1121, 1135
 1136, 1152, 1153, 1168, 1169, 1185, 1200, 3442, 3678, 3694, 3729, 3730, 3738, 3741, 3743, 3745
 3747, 3749, 3750, 3751, 3755, 3758, 3760, 3762, 3764, 3766, 3770, 3772, 3774, 3775, 3777, 3778
 3780, 3781, 3782, 3786
*Elset, elset=_Surf-1_S4, internal, instance="Plate with Hole-1"
 480,
*Elset, elset=_Surf-1_S3, internal, instance="Plate with Hole-1"
  511,  542,  762,  782,  880,  932,  939, 1122, 3402, 3407, 3418, 3423, 3732, 3767, 3915
*Surface, type=ELEMENT, name=Surf-1
_Surf-1_S1, S1
_Surf-1_S4, S4
_Surf-1_S3, S3
*Elset, elset=_Surf-2_S1, internal, instance="Plate with Hole-1"
   56,   57,   58,   59, 1352, 1358, 1371, 1372, 1373, 1381, 1382, 1390, 1416, 1423, 1432, 1441
 1448, 1457, 1465, 1466, 1473, 1474, 1481, 1482, 1490, 1513, 1521, 1530, 1539, 1548, 1557, 1566
 1567, 1575, 1576, 1584, 1585, 1593, 1602, 1610, 1618, 1626, 1635, 1644, 1653, 1662, 1671, 1672
 1680, 1681, 1689, 1690, 1698, 1705, 3532, 3818, 3827, 3829, 3832, 3834, 3836, 3838, 3840, 3841
 3842, 3846, 3849, 3851, 3853, 3855, 3857, 3858, 3859, 3864, 3866, 3868, 3869, 3871, 3872, 3874
 3875, 3876, 3880
*Elset, elset=_Surf-2_S3, internal, instance="Plate with Hole-1"
 1363, 1367, 1370, 1398, 1407, 1458, 1497, 1506, 1558, 1663, 3490, 3491, 3497, 3508, 3822, 3932
*Elset, elset=_Surf-2_S4, internal, instance="Plate with Hole-1"
 1369,
*Surface, type=ELEMENT, name=Surf-2
_Surf-2_S1, S1
_Surf-2_S3, S3
_Surf-2_S4, S4
*End Assembly
** 
** MATERIALS
** 
*Material, name=Material-1
*Conductivity
1.,
** ----------------------------------------------------------------
** 
** STEP: Analysis
** 
*Step, name=Analysis, nlgeom=NO
*Heat Transfer, steady state, deltmx=0.
1., 1., 1e-05, 1., 
** 
** BOUNDARY CONDITIONS
** 
** Name: External Type: Temperature Using Analytical Field: TempBC
*Boundary
"Plate with Hole-1".101, 11, 11, 0.142052
"Plate with Hole-1".102, 11, 11, 0.142052
"Plate with Hole-1".103, 11, 11, 0.126634
"Plate with Hole-1".104, 11, 11, 0.111968
"Plate with Hole-1".105, 11, 11, 0.0980458
"Plate with Hole-1".106, 11, 11, 0.08486
"Plate with Hole-1".107, 11, 11, 0.0724024
"Plate with Hole-1".108, 11, 11, 0.055061
"Plate with Hole-1".109, 11, 11, 0.0443826
"Plate with Hole-1".110, 11, 11, 0.0343979
"Plate with Hole-1".111, 11, 11, 0.0250956
"Plate with Hole-1".112, 11, 11, 0.0164639
"Plate with Hole-1".113, 11, 11, 0.00849056
"Plate with Hole-1".114, 11, 11, 0.0011628
"Plate with Hole-1".115, 11, 11, -0.00553244
"Plate with Hole-1".116, 11, 11, -0.0116085
"Plate with Hole-1".117, 11, 11, -0.0170785
"Plate with Hole-1".118, 11, 11, -0.0219558
"Plate with Hole-1".119, 11, 11, -0.0262531
"Plate with Hole-1".120, 11, 11, -0.0299827
** ... 382 like lines cut
** Name: Internal Type: Temperature
*Boundary
Set-1, 11, 11
** 
** LOADS
** 
** Name: Bottom Flux   Type: Surface heat flux Using Field: Flux
*Dflux
"Plate with Hole-1".56, S1, 0.596157
"Plate with Hole-1".57, S1, 0.592309
"Plate with Hole-1".58, S1, 0.58846
"Plate with Hole-1".59, S1, 0.584615
"Plate with Hole-1".1352, S1, 0.603835
"Plate with Hole-1".1358, S1, 0.611468
"Plate with Hole-1".1363, S3, 0.61903
"Plate with Hole-1".1367, S3, 0.630197
"Plate with Hole-1".1369, S4, 0.644674
"Plate with Hole-1".1370, S3, 0.633864
"Plate with Hole-1".1371, S1, 0.641104
"Plate with Hole-1".1372, S1, 0.580778
"Plate with Hole-1".1373, S1, 0.576954
"Plate with Hole-1".1381, S1, 0.573148
"Plate with Hole-1".1382, S1, 0.569365
"Plate with Hole-1".1390, S1, 0.565611
"Plate with Hole-1".1398, S3, 0.554582
"Plate with Hole-1".1407, S3, 0.551005
"Plate with Hole-1".1416, S1, 0.544039
"Plate with Hole-1".1423, S1, 0.537374
** ... 80 like lines cut
** Name: Heat Source   Type: Body heat flux Using Field: HeatSource
*Dflux
"Plate with Hole-1".1, BF, -3.16831
"Plate with Hole-1".2, BF, -3.15003
"Plate with Hole-1".3, BF, -3.13035
"Plate with Hole-1".4, BF, -3.10213
"Plate with Hole-1".5, BF, -3.07641
"Plate with Hole-1".6, BF, -3.05143
"Plate with Hole-1".7, BF, -2.98483
"Plate with Hole-1".8, BF, -2.95754
"Plate with Hole-1".9, BF, -2.93579
"Plate with Hole-1".10, BF, -2.90804
"Plate with Hole-1".11, BF, -2.8721
"Plate with Hole-1".12, BF, -2.81517
"Plate with Hole-1".13, BF, -2.83392
"Plate with Hole-1".14, BF, -2.74351
"Plate with Hole-1".15, BF, -2.72696
"Plate with Hole-1".16, BF, -2.67266
"Plate with Hole-1".17, BF, -2.67843
"Plate with Hole-1".18, BF, -2.67847
"Plate with Hole-1".19, BF, -2.61176
"Plate with Hole-1".20, BF, -2.59259
** ... 9808 like lines cut
** Name: Load-2   Type: Surface heat flux Using Field: Flux
*Dflux
"Plate with Hole-1".186, S1, 0.517285
"Plate with Hole-1".187, S1, 0.522421
"Plate with Hole-1".188, S1, 0.525186
"Plate with Hole-1".479, S1, 0.641104
"Plate with Hole-1".480, S4, 0.644674
"Plate with Hole-1".511, S3, 0.633864
"Plate with Hole-1".542, S3, 0.630197
"Plate with Hole-1".570, S1, 0.622778
"Plate with Hole-1".598, S1, 0.615259
"Plate with Hole-1".623, S1, 0.607659
"Plate with Hole-1".646, S1, 0.596157
"Plate with Hole-1".647, S1, 0.592309
"Plate with Hole-1".671, S1, 0.58846
"Plate with Hole-1".672, S1, 0.584615
"Plate with Hole-1".695, S1, 0.580778
"Plate with Hole-1".696, S1, 0.576954
"Plate with Hole-1".719, S1, 0.573148
"Plate with Hole-1".720, S1, 0.569365
"Plate with Hole-1".741, S1, 0.565611
"Plate with Hole-1".762, S3, 0.554582
** ... 80 like lines cut
** 
** OUTPUT REQUESTS
** 
*Restart, write, frequency=0
** 
** FIELD OUTPUT: F-Output-1
** 
*Output, field, variable=PRESELECT
*Output, history, frequency=0
*End Step
