*Heading
** Job name: sqhole_tri_mod_dirneubc Model name: Model-1
** Generated by: Abaqus/CAE 6.13-4
*Preprint, echo=NO, model=NO, history=NO, contact=NO
**
** PARTS
**
*Part, name=Part-1
*Node
      1, -0.176776692,  0.176776692
      2,        -0.25,           0.
      3, -0.176776692, -0.176776692
      4,           0.,        -0.25
      5,  0.176776692, -0.176776692
      6,         0.25,           0.
      7,  0.176776692,  0.176776692
      8,           0.,         0.25
      9,          0.5,          0.5
     10,         -0.5,          0.5
     11,         -0.5,         -0.5
     12,          0.5,         -0.5
     13,         0.25,          0.5
     14,           0.,          0.5
     15,        -0.25,          0.5
     16,         -0.5,         0.25
     17,         -0.5,           0.
     18,         -0.5,        -0.25
     19,        -0.25,         -0.5
     20,           0.,         -0.5
** ... 84 like lines cut
*Element, type=DC2D6
 1,  30,  13,  14,  33,  34,  35
 2,  30,  25,  13,  36,  37,  33
 3,  25,  24,  13,  38,  39,  37
 4,  27,  23,   6,  40,  41,  42
 5,  27,  22,  23,  43,  44,  40
 6,  32,  22,  27,  45,  43,  46
 7,  32,   4,  20,  47,  48,  49
 8,  31,   4,   3,  50,  51,  52
 9,  31,  20,   4,  53,  48,  50
10,  31,  28,  18,  54,  55,  56
11,  28,  17,  18,  57,  58,  55
12,  26,  17,   2,  59,  60,  61
13,  26,  16,  17,  62,  63,  59
14,  26,  15,  16,  64,  65,  62
15,  29,  15,  26,  66,  64,  67
16,  30,  14,   8,  35,  68,  69
17,  29,  14,  15,  70,  71,  66
18,  16,  15,  10,  65,  72,  73
19,  28,   2,  17,  74,  60,  57
20,  31,  11,  19,  75,  76,  77
** ... 20 like lines cut
*Nset, nset=Set-1, generate
   1,  104,    1
*Elset, elset=Set-1, generate
  1,  40,   1
** Section: Section-1
*Solid Section, elset=Set-1, material=Material-1
,
*End Part
**  
**
** ASSEMBLY
**
*Assembly, name=Assembly
**  
*Instance, name=Part-1-1, part=Part-1
*End Instance
**  
*End Assembly
** 
** MATERIALS
** 
*Material, name=Material-1
*Conductivity
1.,
